# generated using pymatgen
data_VPO4F
_symmetry_space_group_name_H-M   Pna2_1
_cell_length_a   12.75420000
_cell_length_b   6.27175000
_cell_length_c   10.64030000
_cell_angle_alpha   90.00000000
_cell_angle_beta   90.00000000
_cell_angle_gamma   90.00000000
_symmetry_Int_Tables_number   33
_chemical_formula_structural   VPO4F
_chemical_formula_sum   'V8 P8 O32 F8'
_cell_volume   851.12987431
_cell_formula_units_Z   8
loop_
 _symmetry_equiv_pos_site_id
 _symmetry_equiv_pos_as_xyz
  1  'x, y, z'
  2  '-x, -y, z+1/2'
  3  '-x+1/2, y+1/2, z+1/2'
  4  'x+1/2, -y+1/2, z'
loop_
 _atom_type_symbol
 _atom_type_oxidation_number
  V4+  4.0
  P5+  5.0
  O2-  -2.0
  F-  -1.0
loop_
 _atom_site_type_symbol
 _atom_site_label
 _atom_site_symmetry_multiplicity
 _atom_site_fract_x
 _atom_site_fract_y
 _atom_site_fract_z
 _atom_site_occupancy
	
  V4+  V0  4  0.11728000  0.50870000  0.65380000  1
  V4+  V1  4  0.24020000  0.76300000  0.90950000  1
  P5+  P2  4  0.00474000  0.33924000  0.39755000  1
  P5+  P3  4  0.18762000  0.00699000  0.65399000  1
  O2-  O4  4  0.00954000  0.49124000  0.50818000  1
  O2-  O5  4  0.01121000  0.53505000  0.77737000  1
  O2-  O6  4  0.08585000  0.81430000  0.91533000  1
  O2-  O7  4  0.10649000  0.21507000  0.38932000  1
  O2-  O8  4  0.11196000  0.19016000  0.67443000  1
  O2-  O9  4  0.12658000  0.80631000  0.62311000  1
  O2-  O10  4  0.23938000  0.56005000  0.04599000  1
  O2-  O11  4  0.24868000  0.47145000  0.27244000  1
  F-  F12  4  0.21700000  0.51520000  0.79490000  1
  F-  F13  4  0.24310000  0.48390000  0.54240000  1
